2nd readme.
new line.
added in master and issue1
modify in master.
